results/PD39_TABLE_T2_CANDIDATES.csv
bus,dispatch_p_mw,machine_rating_mva,voltage_setpoint_pu,singleton_nominal_alpha,singleton_nominal_margin,singleton_m9,worst_7of8_margin_when_retained,worst_7of8_alpha_when_retained,worst_7of8_scenario_when_retained
30,250.0,1000.0,1.0475000143051147,-0.1065854541074221,0.1065854541074221,0.1065445794904292,0.0858347015466806,-0.0858347015466806,pll0.8_xf0.8_cc1.2
32,650.0,800.0,0.9830999970436096,-0.09803622788497462,0.09803622788497462,0.09802425768681527,0.0858347015466806,-0.0858347015466806,pll0.8_xf0.8_cc1.2
33,632.0,800.0,0.9972000122070312,-0.09884700664560639,0.09884700664560639,0.09883987584267076,0.0858347015466806,-0.0858347015466806,pll0.8_xf0.8_cc1.2
34,508.0,600.0,1.0123000144958496,-0.09793169549782776,0.09793169549782776,0.09792850293596093,0.12622898346618006,-0.12622898346618006,pll0.8_xf0.8_cc0.8
35,650.0,800.0,1.049299955368042,-0.09864801168096159,0.09864801168096159,0.09864239554383514,0.0858347015466806,-0.0858347015466806,pll0.8_xf0.8_cc1.2
36,560.0,700.0,1.0635000467300415,-0.09797977971296713,0.09797977971296713,0.09797784420229985,0.0858347015466806,-0.0858347015466806,pll0.8_xf0.8_cc1.2
37,540.0,700.0,1.0277999639511108,-0.1379049049238848,0.1379049049238848,0.1379049049215047,0.0858347015466806,-0.0858347015466806,pll0.8_xf0.8_cc1.2
38,830.0000000000001,1000.0,1.0264999866485596,-0.09857955236646727,0.09857955236646727,0.09848688540914431,0.0858347015466806,-0.0858347015466806,pll0.8_xf0.8_cc1.2
